Version 4
SHEET 1 1180 748
WIRE 368 -48 112 -48
WIRE 416 -48 368 -48
WIRE 432 -48 432 -128
WIRE 432 -48 416 -48
WIRE 752 -48 432 -48
WIRE 368 80 368 -48
WIRE 112 96 112 -48
WIRE 80 112 -32 112
WIRE 336 112 160 112
WIRE 752 112 752 -48
WIRE 720 128 400 128
WIRE 336 144 224 144
WIRE 960 160 800 160
WIRE 1088 160 960 160
WIRE 720 192 592 192
WIRE 784 208 752 208
WIRE 960 240 960 160
WIRE 960 240 608 240
WIRE 592 256 592 192
WIRE 944 256 592 256
WIRE 224 272 224 144
WIRE 224 272 -160 272
WIRE 608 352 608 240
WIRE 720 352 608 352
WIRE 416 368 416 -48
WIRE 416 368 368 368
WIRE 944 384 944 256
WIRE 944 384 800 384
WIRE 1088 384 944 384
WIRE 224 400 224 272
WIRE 336 400 224 400
WIRE 720 416 400 416
WIRE -32 432 -32 112
WIRE -32 432 -160 432
WIRE 336 432 -32 432
WIRE 112 544 112 128
WIRE 368 544 368 464
WIRE 368 544 112 544
WIRE 432 544 368 544
WIRE 752 544 752 432
WIRE 752 544 432 544
WIRE 784 544 784 208
WIRE 784 544 752 544
WIRE 432 640 432 544
FLAG 432 -128 VDD
IOPIN 432 -128 In
FLAG 432 640 VSS
IOPIN 432 640 In
FLAG 1088 160 Q
IOPIN 1088 160 Out
FLAG 1088 384 /Q
IOPIN 1088 384 Out
FLAG -160 432 D
IOPIN -160 432 In
FLAG -160 272 CLK
IOPIN -160 272 In
SYMBOL m_Inverter 112 112 R0
SYMATTR InstName X1
SYMBOL m_And 400 128 R0
SYMATTR InstName X2
SYMBOL m_And 400 416 R0
SYMATTR InstName X3
SYMBOL m_Nor 800 160 R0
SYMATTR InstName X4
SYMBOL m_Nor 800 384 R0
SYMATTR InstName X5
