Version 4
SHEET 1 880 680
WIRE 320 48 320 -32
WIRE 320 48 208 48
WIRE 432 48 320 48
WIRE 208 112 208 48
WIRE 176 128 -64 128
WIRE 432 144 432 48
WIRE 400 160 256 160
WIRE 640 160 464 160
WIRE 176 192 -64 192
WIRE 208 272 208 208
WIRE 320 272 208 272
WIRE 432 272 432 176
WIRE 432 272 320 272
WIRE 320 352 320 272
FLAG 640 160 OR_O
IOPIN 640 160 Out
FLAG -64 128 OR_A
IOPIN -64 128 In
FLAG -64 192 OR_B
IOPIN -64 192 In
FLAG 320 -32 VDD
IOPIN 320 -32 In
FLAG 320 352 VSS
IOPIN 320 352 In
SYMBOL m_Nor 256 160 R0
SYMATTR InstName X1
SYMBOL m_Inverter 432 160 R0
SYMATTR InstName X2
