Version 4
SHEET 1 2212 680
WIRE 864 -256 752 -256
WIRE 1120 -256 1056 -256
WIRE 752 -240 752 -256
WIRE 320 -224 176 -224
WIRE 1120 -208 1120 -256
WIRE 2096 -208 2000 -208
WIRE 320 -176 320 -224
WIRE 2096 -176 2096 -208
WIRE 864 -96 800 -96
WIRE 960 -96 960 -160
WIRE 960 -96 928 -96
WIRE 1120 -96 1120 -128
WIRE 320 -80 320 -96
WIRE 320 -80 256 -80
WIRE 256 -64 256 -80
WIRE 320 -64 320 -80
WIRE 2096 -64 2096 -96
WIRE 2192 -64 2096 -64
WIRE 2096 -48 2096 -64
WIRE 2192 -48 2192 -64
WIRE 960 -16 960 -96
WIRE 1216 32 1088 32
WIRE 1392 32 1296 32
WIRE 176 112 176 -224
WIRE 2000 112 2000 -208
WIRE 144 128 0 128
WIRE 720 128 560 128
WIRE 1616 128 1088 128
WIRE 1968 128 1616 128
WIRE 0 144 0 128
WIRE 288 144 208 144
WIRE 2176 144 2032 144
WIRE 144 160 80 160
WIRE 560 160 560 128
WIRE 1968 160 1872 160
WIRE 1616 176 1616 128
WIRE 1872 176 1872 160
WIRE 1264 224 1088 224
WIRE 1456 224 1344 224
WIRE 176 240 176 176
WIRE 320 240 320 16
WIRE 320 240 176 240
WIRE 2000 240 2000 176
WIRE 2096 240 2096 32
WIRE 2096 240 2000 240
WIRE 0 256 0 224
WIRE 80 288 80 240
WIRE 1616 288 1616 240
WIRE 1872 288 1872 256
WIRE 560 320 560 240
WIRE 960 320 960 272
FLAG 256 -64 0
FLAG 0 256 0
FLAG 80 288 0
FLAG 560 320 0
FLAG 960 320 0
FLAG 1120 -96 0
FLAG 752 -240 0
FLAG 1392 32 0
FLAG 1456 224 0
FLAG 800 -96 0
FLAG 1616 288 0
FLAG 2192 -48 0
FLAG 1872 288 0
SYMBOL Comparators\\LTC1441 176 80 R0
SYMATTR InstName U1
SYMBOL voltage 0 128 R0
SYMATTR InstName V1
SYMATTR Value 3
SYMBOL voltage 320 -192 R0
SYMATTR InstName V2
SYMATTR Value 5V
SYMBOL voltage 320 -80 R0
SYMATTR InstName V3
SYMATTR Value 5V
SYMBOL voltage 80 144 R0
SYMATTR InstName V4
SYMATTR Value 2
SYMBOL ADC\\AD4002 992 128 R0
SYMATTR InstName U2
SYMBOL voltage 1120 -224 R0
SYMATTR InstName V6
SYMATTR Value 12V
SYMBOL References\\LT1236-5 960 -256 R90
SYMATTR InstName U3
SYMBOL voltage 1200 32 R270
WINDOW 0 32 56 VTop 2
WINDOW 3 -32 56 VBottom 2
SYMATTR InstName V7
SYMATTR Value 1.8
SYMBOL voltage 1248 224 R270
WINDOW 0 32 56 VTop 2
WINDOW 3 -32 56 VBottom 2
WINDOW 123 0 0 Left 0
WINDOW 39 0 0 Left 0
SYMATTR InstName V8
SYMATTR Value PULSE(0 1.8 227n 0.1n 0.1n 40n 500n)
SYMBOL voltage 560 144 R0
WINDOW 123 0 0 Left 0
WINDOW 39 0 0 Left 0
SYMATTR InstName V5
SYMATTR Value PWL(0 0 100u 5)
SYMBOL cap 928 -112 R90
WINDOW 0 0 32 VBottom 2
WINDOW 3 32 32 VTop 2
SYMATTR InstName C2
SYMATTR Value 10n
SYMBOL cap 1600 176 R0
SYMATTR InstName C1
SYMATTR Value 10p
SYMBOL Comparators\\LTC1441 2000 80 R0
SYMATTR InstName U4
SYMBOL voltage 2096 -192 R0
SYMATTR InstName V9
SYMATTR Value 12V
SYMBOL voltage 2096 -64 R0
WINDOW 0 17 5 Left 2
SYMATTR InstName V10
SYMATTR Value 12V
SYMBOL voltage 1872 160 R0
SYMATTR InstName V11
SYMATTR Value 3V
TEXT -32 312 Left 2 !.tran 100m
TEXT -72 16 Left 2 ;Simple Detect
TEXT 1808 104 Left 2 ;ADC Detect
