Version 4
SHEET 1 1604 680
WIRE 1392 -1024 1392 -1056
WIRE 1200 -1008 1056 -1008
WIRE 1360 -1008 1280 -1008
WIRE 1504 -992 1424 -992
WIRE 1536 -992 1504 -992
WIRE 1360 -976 1280 -976
WIRE 1392 -928 1392 -960
WIRE 1280 -896 1280 -976
WIRE 1360 -896 1280 -896
WIRE 1504 -896 1504 -992
WIRE 1504 -896 1440 -896
WIRE 1280 -880 1280 -896
WIRE 1280 -752 1280 -800
WIRE -64 -576 -64 -656
WIRE 352 -576 352 -656
WIRE 560 -576 560 -640
WIRE 640 -576 640 -640
WIRE 720 -576 720 -640
WIRE 560 -432 560 -496
WIRE 640 -432 640 -496
WIRE 720 -432 720 -496
WIRE -64 -416 -64 -496
WIRE 352 -416 352 -496
WIRE 880 -208 880 -288
WIRE 1152 -176 912 -176
WIRE 1600 -176 1344 -176
WIRE 880 -128 880 -144
WIRE 880 -32 880 -80
WIRE 1152 0 912 0
WIRE 1600 0 1344 0
WIRE 880 48 880 32
WIRE 880 144 880 96
WIRE 1152 176 912 176
WIRE 1600 176 1344 176
WIRE 880 224 880 208
FLAG 560 -432 0
FLAG 640 -432 0
FLAG 720 -432 0
FLAG 720 -640 3V3
FLAG 640 -640 5V
FLAG 560 -640 10V
FLAG 352 -416 0
FLAG 352 -656 1kHz_Sine
FLAG -64 -416 0
FLAG -64 -656 PULSE
FLAG 880 -288 10V
FLAG 880 -80 5V
FLAG 880 -128 0
FLAG 880 48 0
FLAG 880 224 0
FLAG 880 96 3V3
FLAG 1392 -1056 5V
FLAG 1392 -928 0
FLAG 1056 -1008 1kHz_Sine
FLAG 1280 -752 0
SYMBOL ADC\\AD4000 -32 0 R0
SYMATTR InstName U1
SYMBOL Misc\\LT5400-6 576 0 R0
SYMATTR InstName U2
SYMBOL Optos\\4N25 1248 -112 R0
SYMATTR InstName U3
SYMBOL Optos\\4N25 1248 64 R0
SYMATTR InstName U4
SYMBOL Optos\\4N25 1248 240 R0
SYMATTR InstName U5
SYMBOL Comparators\\LT1017 880 -176 R0
SYMATTR InstName U6
SYMBOL Comparators\\LT1017 880 0 R0
SYMATTR InstName U7
SYMBOL Comparators\\LT1017 880 176 R0
SYMATTR InstName U8
SYMBOL voltage 560 -592 R0
SYMATTR InstName V1
SYMATTR Value 10V
SYMBOL voltage 640 -592 R0
SYMATTR InstName V2
SYMATTR Value 5V
SYMBOL voltage 720 -592 R0
SYMATTR InstName V3
SYMATTR Value 3.3V
SYMBOL voltage 352 -592 R0
WINDOW 123 0 0 Left 0
WINDOW 39 0 0 Left 0
SYMATTR InstName V4
SYMATTR Value SINE(0 1 1Hz)
SYMBOL voltage -64 -592 R0
WINDOW 123 0 0 Left 0
WINDOW 39 0 0 Left 0
SYMATTR InstName V5
SYMATTR Value PULSE(0 5 0 0.01u 0.01u 0.5m 1m)
SYMBOL Comparators\\LT1017 1392 -992 R0
SYMATTR InstName U9
SYMBOL res 1296 -1024 R90
WINDOW 0 0 56 VBottom 2
WINDOW 3 32 56 VTop 2
SYMATTR InstName R1
SYMATTR Value 1k
SYMBOL res 1264 -896 R0
SYMATTR InstName R2
SYMATTR Value 10
SYMBOL res 1456 -912 R90
WINDOW 0 36 94 VBottom 2
WINDOW 3 8 8 VTop 2
SYMATTR InstName R3
SYMATTR Value 1k
TEXT -310 324 Left 2 !.tran 1s
