Version 4
SHEET 1 2836 680
WIRE 2416 -848 2240 -848
WIRE 2608 -848 2496 -848
WIRE 2448 -656 2448 -736
WIRE 2448 -496 2448 -576
WIRE 1104 -400 1104 -448
WIRE 1472 -400 1472 -448
WIRE 2608 -400 2608 -848
WIRE 2608 -400 2448 -400
WIRE 2720 -400 2608 -400
WIRE 2448 -336 2448 -400
WIRE 2240 -320 2240 -848
WIRE 2240 -320 2176 -320
WIRE 2400 -320 2400 -416
WIRE 2400 -320 2240 -320
WIRE 2400 -256 2400 -320
WIRE 1088 -240 800 -240
WIRE 1104 -240 1104 -320
WIRE 1104 -240 1088 -240
WIRE 1472 -240 1472 -320
WIRE 1520 -240 1472 -240
WIRE 1728 -240 1520 -240
WIRE 1088 -192 1088 -240
WIRE 1184 -192 1088 -192
WIRE 2448 -192 2448 -240
WIRE 1728 -176 1728 -240
WIRE 1088 -144 1088 -192
WIRE 1184 -112 1184 -192
WIRE 1520 -80 1520 -240
WIRE 800 -48 800 -240
WIRE 1728 -16 1728 -96
WIRE 1856 -16 1728 -16
WIRE 1968 -16 1856 -16
WIRE 2096 -16 1968 -16
WIRE 2240 0 2240 -320
WIRE 2400 0 2240 0
WIRE 2608 0 2608 -400
WIRE 2608 0 2464 0
WIRE 1088 16 1088 -64
WIRE 1184 16 1184 -48
WIRE 1184 16 1088 16
WIRE 1200 16 1184 16
WIRE 1328 16 1264 16
WIRE 304 32 160 32
WIRE 688 32 304 32
WIRE 1088 32 1088 16
WIRE 1728 32 1728 -16
WIRE 1856 48 1856 -16
WIRE 160 80 160 32
WIRE 688 80 688 32
WIRE 800 80 800 32
WIRE 800 80 688 80
WIRE 1024 80 800 80
WIRE 1520 80 1520 0
WIRE 1520 80 1424 80
WIRE 1664 80 1520 80
WIRE 2240 112 2240 64
WIRE 2608 112 2608 64
WIRE 1968 128 1968 -16
WIRE 800 192 800 80
WIRE 1520 192 1520 80
WIRE 1728 192 1728 128
WIRE 160 208 160 160
WIRE 1328 208 1328 16
WIRE 1424 208 1424 80
WIRE 304 224 304 32
WIRE 1856 224 1856 112
WIRE 2320 224 2224 224
WIRE 2480 224 2400 224
WIRE 1088 240 1088 128
WIRE 160 304 160 272
WIRE 2224 304 2224 224
WIRE 2320 304 2224 304
WIRE 2480 304 2480 224
WIRE 2480 304 2384 304
WIRE 2624 304 2480 304
WIRE 1424 368 1424 272
WIRE 1520 368 1520 272
WIRE 1520 368 1424 368
WIRE 1728 368 1728 272
WIRE 1728 368 1520 368
WIRE 1856 368 1856 288
WIRE 1856 368 1728 368
WIRE 1968 368 1968 192
WIRE 1968 368 1856 368
WIRE 2224 368 2224 304
WIRE 2320 368 2224 368
WIRE 2480 368 2480 304
WIRE 2480 368 2384 368
WIRE 800 384 800 272
WIRE 800 384 688 384
WIRE 1088 384 1088 320
WIRE 1088 384 800 384
WIRE 1328 384 1328 288
WIRE 1328 384 1088 384
WIRE 1088 416 1088 384
WIRE 1728 416 1728 368
WIRE 2224 416 2224 368
WIRE 2480 416 2480 368
WIRE 160 448 160 384
WIRE 304 448 304 288
WIRE 304 448 160 448
WIRE 688 448 688 384
WIRE 688 448 304 448
WIRE 2224 512 2224 480
WIRE 2480 512 2480 480
FLAG 1088 416 0
FLAG 1728 416 0
FLAG 1104 -448 0
FLAG 1472 -448 0
FLAG 2448 -736 0
FLAG 2448 -192 0
FLAG 2240 112 0
FLAG 2608 112 0
FLAG 2224 512 0
FLAG 2480 512 0
SYMBOL cap 288 224 R0
SYMATTR InstName C2
SYMATTR Value 2.5p
SYMBOL npn 1024 32 R0
SYMATTR InstName Q1
SYMATTR Value 2N2222
SYMBOL npn 1664 32 R0
SYMATTR InstName Q2
SYMBOL res 1712 176 R0
SYMATTR InstName R2
SYMATTR Value 1k
SYMBOL res 1504 176 R0
SYMATTR InstName R3
SYMATTR Value 1k
SYMBOL res 1504 -96 R0
SYMATTR InstName R4
SYMATTR Value 1k
SYMBOL ind 1712 -192 R0
SYMATTR InstName L2
SYMATTR Value 10µ
SYMBOL res 784 176 R0
SYMATTR InstName R5
SYMATTR Value 33k
SYMBOL res 784 -64 R0
SYMATTR InstName R6
SYMATTR Value 110k
SYMBOL ind 1072 -160 R0
SYMATTR InstName L3
SYMATTR Value 10µ
SYMBOL cap 1840 48 R0
SYMATTR InstName C6
SYMATTR Value 10µ
SYMBOL cap 1840 224 R0
SYMATTR InstName C7
SYMATTR Value 10µ
SYMBOL Misc\\xtal 1984 192 R180
WINDOW 0 24 72 Left 2
WINDOW 3 24 0 Left 2
SYMATTR InstName C8
SYMATTR Value 10µ
SYMATTR SpiceLine Rser=1k Lser=10u Rpar=1k Cpar=10u
SYMBOL cap 1408 208 R0
SYMATTR InstName C9
SYMATTR Value 10µ
SYMBOL res 1072 224 R0
SYMATTR InstName R7
SYMATTR Value 33
SYMBOL res 1312 192 R0
SYMATTR InstName R8
SYMATTR Value 10k
SYMBOL cap 1264 0 R90
WINDOW 0 0 32 VBottom 2
WINDOW 3 32 32 VTop 2
SYMATTR InstName C3
SYMATTR Value 1000p
SYMBOL cap 1168 -112 R0
SYMATTR InstName C4
SYMATTR Value 2200p
SYMBOL ind 144 64 R0
SYMATTR InstName L1
SYMATTR Value 2.5
SYMBOL cap 144 208 R0
SYMATTR InstName C1
SYMATTR Value 0.01p
SYMBOL res 144 288 R0
SYMATTR InstName R1
SYMATTR Value 640
SYMBOL voltage 1104 -304 R180
WINDOW 123 0 0 Left 0
WINDOW 39 0 0 Left 0
SYMATTR InstName V1
SYMATTR Value SINE(0 5 1k)
SYMBOL voltage 1472 -304 R180
WINDOW 0 24 96 Left 2
WINDOW 3 24 16 Left 2
WINDOW 123 0 0 Left 0
WINDOW 39 0 0 Left 0
SYMATTR InstName V2
SYMATTR Value SINE(0 3.3 1k)
SYMBOL Misc\\xtal 2400 16 R270
WINDOW 0 32 32 VTop 2
WINDOW 3 0 32 VBottom 2
SYMATTR InstName C5
SYMATTR Value 0.007p
SYMATTR SpiceLine Rser=22 Lser=0.2265 Cpar=2.39p
SYMBOL pmos 2400 -496 R0
SYMATTR InstName M1
SYMBOL nmos 2400 -336 R0
SYMATTR InstName M2
SYMBOL voltage 2448 -560 R180
WINDOW 0 24 96 Left 2
WINDOW 3 24 16 Left 2
WINDOW 123 0 0 Left 0
WINDOW 39 24 68 Left 2
SYMATTR InstName V3
SYMATTR Value 5
SYMBOL cap 2592 0 R0
SYMATTR InstName C10
SYMATTR Value 20p
SYMBOL cap 2224 0 R0
SYMATTR InstName C11
SYMATTR Value 20p
SYMBOL res 2512 -864 R90
WINDOW 0 0 56 VBottom 2
WINDOW 3 32 56 VTop 2
SYMATTR InstName R9
SYMATTR Value 1Meg
SYMBOL Digital\\inv 2320 240 R0
SYMATTR InstName A1
SYMBOL cap 2208 416 R0
SYMATTR InstName C12
SYMATTR Value 20p
SYMBOL cap 2464 416 R0
SYMATTR InstName C13
SYMATTR Value 20p
SYMBOL res 2416 208 R90
WINDOW 0 0 56 VBottom 2
WINDOW 3 32 56 VTop 2
SYMATTR InstName R10
SYMATTR Value 100Meg
SYMBOL Misc\\xtal 2384 352 R90
WINDOW 0 0 32 VBottom 2
WINDOW 3 32 32 VTop 2
SYMATTR InstName C14
SYMATTR Value 0.007p
SYMATTR SpiceLine Rser=22 Lser=0.2265 Cpar=2.39p
TEXT 94 458 Left 2 !.tran 100m
TEXT 200 -8 Left 2 ;Crystal Template
TEXT 904 -256 Left 2 ;Series Resonance
TEXT 1720 -256 Left 2 ;Parallel Resonance
TEXT 2560 -856 Left 2 ;Fail
