Version 4
SHEET 1 1284 776
WIRE 192 64 192 0
WIRE 1008 64 1008 0
WIRE -112 192 -208 192
WIRE 64 192 -32 192
WIRE 192 192 192 144
WIRE 192 192 64 192
WIRE 704 192 608 192
WIRE 928 192 784 192
WIRE 1008 192 1008 144
WIRE 1008 192 928 192
WIRE 192 240 192 192
WIRE 1008 240 1008 192
WIRE 64 288 64 192
WIRE 880 288 880 224
WIRE -208 304 -208 192
WIRE -128 304 -208 304
WIRE 32 304 -48 304
WIRE 608 304 608 192
WIRE 688 304 608 304
WIRE 848 304 768 304
WIRE 144 320 96 320
WIRE 960 320 912 320
WIRE -208 336 -208 304
WIRE 32 336 0 336
WIRE 608 336 608 304
WIRE 848 336 816 336
WIRE 192 368 192 336
WIRE 288 368 192 368
WIRE 400 368 288 368
WIRE 1008 368 1008 336
WIRE 1104 368 1008 368
WIRE 1216 368 1104 368
WIRE 192 384 192 368
WIRE 1008 384 1008 368
WIRE 880 400 880 352
WIRE 928 400 928 192
WIRE 928 400 880 400
WIRE 64 416 64 352
WIRE -208 432 -208 400
WIRE 608 432 608 400
WIRE 288 448 288 368
WIRE 400 448 400 368
WIRE 1104 448 1104 368
WIRE 1216 448 1216 368
WIRE 0 480 0 336
WIRE 192 480 192 464
WIRE 192 480 0 480
WIRE 816 480 816 336
WIRE 1008 480 1008 464
WIRE 1008 480 816 480
WIRE 192 496 192 480
WIRE 1008 496 1008 480
WIRE 192 624 192 576
WIRE 288 624 288 512
WIRE 400 624 400 528
WIRE 1008 624 1008 576
WIRE 1104 624 1104 512
WIRE 1216 624 1216 528
FLAG 192 0 0
FLAG 288 624 0
FLAG 192 624 0
FLAG -208 432 0
FLAG 64 416 0
FLAG 400 624 0
FLAG 1008 0 0
FLAG 1104 624 0
FLAG 1008 624 0
FLAG 608 432 0
FLAG 1216 624 0
FLAG 880 224 0
SYMBOL voltage 192 160 R180
WINDOW 0 24 96 Left 2
WINDOW 3 24 16 Left 2
SYMATTR InstName V1
SYMATTR Value 12V
SYMBOL OpAmps\\UniversalOpAmp 64 320 R0
SYMATTR InstName U1
SYMBOL res 176 368 R0
SYMATTR InstName R1
SYMATTR Value 1k
SYMBOL res 176 480 R0
SYMATTR InstName R2
SYMATTR Value 1k
SYMBOL cap 272 448 R0
SYMATTR InstName C1
SYMATTR Value 1µ
SYMBOL References\\LT1004-2.5 -208 368 R0
SYMATTR InstName U2
SYMBOL res -16 176 R90
WINDOW 0 0 56 VBottom 2
WINDOW 3 32 56 VTop 2
SYMATTR InstName R3
SYMATTR Value 1k
SYMBOL res -32 288 R90
WINDOW 0 0 56 VBottom 2
WINDOW 3 32 56 VTop 2
SYMATTR InstName R4
SYMATTR Value 1k
SYMBOL res 384 432 R0
SYMATTR InstName R5
SYMATTR Value 1k
SYMBOL pmos 144 240 R0
SYMATTR InstName M1
SYMATTR Value FDC5614P
SYMBOL voltage 1008 160 R180
WINDOW 0 24 96 Left 2
WINDOW 3 24 16 Left 2
SYMATTR InstName V2
SYMATTR Value 12V
SYMBOL res 992 368 R0
SYMATTR InstName R6
SYMATTR Value 1k
SYMBOL res 992 480 R0
SYMATTR InstName R7
SYMATTR Value 1k
SYMBOL cap 1088 448 R0
SYMATTR InstName C2
SYMATTR Value 1µ
SYMBOL References\\LT1004-2.5 608 368 R0
SYMATTR InstName U4
SYMBOL res 800 176 R90
WINDOW 0 0 56 VBottom 2
WINDOW 3 32 56 VTop 2
SYMATTR InstName R8
SYMATTR Value 1k
SYMBOL res 784 288 R90
WINDOW 0 0 56 VBottom 2
WINDOW 3 32 56 VTop 2
SYMATTR InstName R9
SYMATTR Value 1k
SYMBOL res 1200 432 R0
SYMATTR InstName R10
SYMATTR Value 1k
SYMBOL nmos 960 240 R0
SYMATTR InstName M2
SYMBOL OpAmps\\UniversalOpAmp 880 320 M180
SYMATTR InstName U3
TEXT -188 760 Left 2 !.tran 10s
