Version 4
SHEET 1 880 680
WIRE 144 112 48 112
WIRE 304 112 224 112
WIRE 48 192 48 112
WIRE 144 192 48 192
WIRE 304 192 304 112
WIRE 304 192 208 192
WIRE 432 192 304 192
WIRE 48 256 48 192
WIRE 144 256 48 256
WIRE 304 256 304 192
WIRE 304 256 208 256
WIRE 48 304 48 256
WIRE 304 304 304 256
WIRE 48 400 48 368
WIRE 304 400 304 368
FLAG 48 400 0
FLAG 304 400 0
SYMBOL Digital\\inv 144 128 R0
SYMATTR InstName A1
SYMBOL cap 32 304 R0
SYMATTR InstName C1
SYMATTR Value 20p
SYMBOL cap 288 304 R0
SYMATTR InstName C2
SYMATTR Value 20p
SYMBOL res 240 96 R90
WINDOW 0 0 56 VBottom 2
WINDOW 3 32 56 VTop 2
SYMATTR InstName R1
SYMATTR Value 100Meg
SYMBOL Misc\\xtal 208 240 R90
WINDOW 0 0 32 VBottom 2
WINDOW 3 32 32 VTop 2
SYMATTR InstName C3
SYMATTR Value 0.007p
SYMATTR SpiceLine Rser=22 Lser=0.2265 Cpar=2.39p
TEXT 28 424 Left 2 !.tran 0 30m 25m 1m
