Version 4
SHEET 1 924 680
WIRE 160 -384 -32 -384
WIRE 352 -384 224 -384
WIRE -32 -336 -32 -384
WIRE 800 -256 800 -304
WIRE -32 -208 -32 -256
WIRE 560 -96 496 -96
WIRE 800 -96 800 -176
WIRE 800 -96 624 -96
WIRE 336 -16 336 -48
WIRE 496 16 496 -96
WIRE 560 16 496 16
WIRE 688 16 640 16
WIRE 800 16 800 -96
WIRE 800 16 752 16
WIRE 64 112 -128 112
WIRE 336 112 336 64
WIRE 336 112 256 112
WIRE 496 112 496 16
WIRE 560 112 496 112
WIRE 784 112 640 112
WIRE 496 160 496 112
WIRE -64 208 -128 208
WIRE 64 208 16 208
WIRE 304 208 256 208
WIRE 432 208 384 208
WIRE 496 320 496 256
FLAG 336 -48 0
FLAG 496 320 0
FLAG 800 -304 0
FLAG -128 112 PCL24V
IOPIN -128 112 In
FLAG -128 208 PLCY0
IOPIN -128 208 BiDir
FLAG 784 112 OUTY0
IOPIN 784 112 Out
FLAG -32 -208 0
FLAG 352 -384 PCL24V
IOPIN 352 -384 In
SYMBOL Optos\\4N25 160 176 R0
SYMATTR InstName U1
SYMBOL res 32 192 R90
WINDOW 0 0 56 VBottom 2
WINDOW 3 32 56 VTop 2
SYMATTR InstName R1
SYMATTR Value 10K
SYMBOL voltage 336 80 R180
WINDOW 0 24 96 Left 2
WINDOW 3 24 16 Left 2
SYMATTR InstName V1
SYMATTR Value 24V
SYMBOL res 400 192 R90
WINDOW 0 0 56 VBottom 2
WINDOW 3 32 56 VTop 2
SYMATTR InstName R2
SYMATTR Value 10K
SYMBOL npn 432 160 R0
SYMATTR InstName Q1
SYMBOL res 656 96 R90
WINDOW 0 0 56 VBottom 2
WINDOW 3 32 56 VTop 2
SYMATTR InstName R3
SYMATTR Value 22
SYMBOL res 656 0 R90
WINDOW 0 0 56 VBottom 2
WINDOW 3 32 56 VTop 2
SYMATTR InstName R4
SYMATTR Value 10K
SYMBOL diode 560 -80 R270
WINDOW 0 32 32 VTop 2
WINDOW 3 0 32 VBottom 2
SYMATTR InstName D1
SYMBOL voltage 800 -160 R180
WINDOW 0 24 96 Left 2
WINDOW 3 24 16 Left 2
SYMATTR InstName V2
SYMATTR Value 24V
SYMBOL LED 752 32 M270
WINDOW 0 72 32 VTop 2
WINDOW 3 0 32 VBottom 2
SYMATTR InstName D2
SYMBOL voltage -32 -352 R0
SYMATTR InstName V3
SYMATTR Value 0V
SYMBOL Digital\\inv 160 -448 R0
SYMATTR InstName A1
TEXT -274 344 Left 2 !.tran 10ms
