Version 4
SHEET 1 1220 680
WIRE 672 -512 400 -512
WIRE 672 -464 672 -512
WIRE 400 -432 400 -512
WIRE -96 -384 -128 -384
WIRE 0 -384 -16 -384
WIRE 112 -384 80 -384
WIRE 224 -384 192 -384
WIRE 272 -384 224 -384
WIRE 576 -384 464 -384
WIRE 864 -384 768 -384
WIRE 272 -368 272 -384
WIRE 576 -320 320 -320
WIRE 224 -304 224 -384
WIRE 864 -272 864 -384
WIRE 272 -240 272 -288
WIRE 400 -224 400 -352
WIRE 544 -224 400 -224
WIRE 320 -208 320 -320
WIRE 464 -208 464 -384
WIRE 544 -176 544 -224
WIRE 608 -176 608 -208
WIRE 608 -176 544 -176
WIRE 736 -176 736 -208
WIRE 272 -112 272 -160
WIRE 464 -96 464 -128
WIRE 320 -80 320 -128
WIRE -128 -48 -128 -384
WIRE -80 -48 -128 -48
WIRE 864 -48 864 -192
WIRE 224 -32 224 -224
WIRE 448 -32 224 -32
WIRE 496 -32 448 -32
WIRE 640 -32 576 -32
WIRE -160 16 -256 16
WIRE -80 16 -80 -48
WIRE -80 16 -112 16
WIRE -48 16 -80 16
WIRE 32 16 16 16
WIRE 48 16 32 16
WIRE 144 16 128 16
WIRE 240 16 224 16
WIRE 352 16 320 16
WIRE 736 16 688 16
WIRE 848 16 816 16
WIRE 976 16 912 16
WIRE 1040 16 976 16
WIRE 1056 16 1040 16
WIRE 1200 16 1136 16
WIRE -256 48 -256 16
WIRE -160 48 -160 16
WIRE -112 48 -112 16
WIRE -48 48 -48 16
WIRE 32 48 32 16
WIRE 352 48 352 16
WIRE 640 48 640 -32
WIRE 688 48 688 16
WIRE 976 48 976 16
WIRE 448 112 448 -32
WIRE -256 144 -256 128
WIRE -160 144 -160 128
WIRE -160 144 -256 144
WIRE -112 144 -112 128
WIRE -48 144 -48 128
WIRE -48 144 -112 144
WIRE -48 160 -48 144
WIRE 32 160 32 112
WIRE -160 176 -160 144
WIRE 352 176 352 128
WIRE 640 176 640 128
WIRE 688 176 688 128
WIRE 704 176 688 176
WIRE 816 176 784 176
WIRE 944 176 816 176
WIRE 976 176 976 112
WIRE 816 208 816 176
WIRE 944 224 944 176
WIRE 48 240 16 240
WIRE 144 240 128 240
WIRE 400 240 400 192
WIRE 400 240 144 240
WIRE 448 240 448 208
WIRE 640 288 640 256
WIRE 96 304 96 272
WIRE 96 320 96 304
WIRE 144 320 144 240
WIRE 144 320 128 320
WIRE 176 320 144 320
WIRE 320 320 256 320
WIRE 496 320 448 320
WIRE 816 320 816 288
WIRE 16 336 16 240
WIRE 64 336 16 336
WIRE 832 352 128 352
WIRE 944 352 944 304
WIRE 944 352 912 352
WIRE 1040 352 1040 16
WIRE 1040 352 944 352
WIRE 96 384 96 368
WIRE 528 384 96 384
WIRE 320 416 320 320
WIRE 336 416 320 416
WIRE 400 416 336 416
WIRE 432 416 400 416
WIRE 528 416 528 384
WIRE 528 416 512 416
WIRE 336 448 336 416
WIRE 400 448 400 416
WIRE 528 448 528 416
WIRE 400 560 400 512
WIRE 528 560 528 528
WIRE 528 560 400 560
WIRE 336 592 336 512
WIRE 400 592 400 560
FLAG -48 160 0
FLAG -160 176 0
FLAG 32 160 0
FLAG 1200 16 0
FLAG 976 176 0
FLAG 400 592 0
FLAG 96 272 0
FLAG 736 -176 0
FLAG 464 -96 0
FLAG 352 176 0
FLAG 320 -80 0
FLAG 864 -48 0
FLAG 272 -112 0
FLAG 496 320 0
FLAG 640 288 0
FLAG 336 592 0
FLAG 816 320 0
SYMBOL ind2 -176 32 R0
WINDOW 0 -13 22 Left 2
WINDOW 3 -13 59 Left 2
SYMATTR InstName L1
SYMATTR Value 200µ
SYMBOL ind2 -96 144 R180
WINDOW 0 0 86 Left 2
WINDOW 3 -2 53 Left 2
SYMATTR InstName L2
SYMATTR Value 100µ
SYMBOL res -64 32 R0
SYMATTR InstName R1
SYMATTR Value 100k
SYMBOL voltage -256 32 R0
WINDOW 3 -130 137 Left 2
WINDOW 123 0 0 Left 0
WINDOW 39 -128 170 Left 2
SYMATTR Value SINE(0 220 60)
SYMATTR SpiceLine Rser=0.001
SYMATTR InstName V1
SYMBOL res 144 0 R90
WINDOW 0 0 56 VBottom 2
WINDOW 3 32 56 VTop 2
SYMATTR InstName R2
SYMATTR Value 10k
SYMBOL res 240 0 R90
WINDOW 0 0 56 VBottom 2
WINDOW 3 32 56 VTop 2
SYMATTR InstName R3
SYMATTR Value 10k
SYMBOL res 336 0 R90
WINDOW 0 0 56 VBottom 2
WINDOW 3 32 56 VTop 2
SYMATTR InstName R4
SYMATTR Value 10k
SYMBOL diode -48 32 R270
WINDOW 0 32 32 VTop 2
WINDOW 3 0 32 VBottom 2
SYMATTR InstName D1
SYMBOL cap 16 48 R0
SYMATTR InstName C1
SYMATTR Value 10000µF
SYMBOL ind2 624 32 R0
WINDOW 0 -37 64 Left 2
WINDOW 3 -61 93 Left 2
SYMATTR InstName L3
SYMATTR Value 10µH
SYMBOL ind2 704 144 R180
WINDOW 0 -11 56 Left 2
WINDOW 3 -25 22 Left 2
SYMATTR InstName L4
SYMATTR Value 10µH
SYMBOL cap 960 48 R0
SYMATTR InstName C2
SYMATTR Value 100µF
SYMBOL res 1152 0 R90
WINDOW 0 0 56 VBottom 2
WINDOW 3 32 56 VTop 2
SYMATTR InstName R6
SYMATTR Value 200
SYMBOL diode 848 32 R270
WINDOW 0 32 32 VTop 2
WINDOW 3 0 32 VBottom 2
SYMATTR InstName D2
SYMBOL References\\LT1004-2.5 400 480 R0
SYMATTR InstName U1
SYMBOL voltage 528 432 R0
SYMATTR InstName V2
SYMATTR Value 5V
SYMBOL res 928 336 R90
WINDOW 0 0 56 VBottom 2
WINDOW 3 32 56 VTop 2
SYMATTR InstName R7
SYMATTR Value 1k
SYMBOL Contrib\\Nexperia\\nmos\\BUK7K17-60E 400 112 R0
SYMATTR InstName U2
SYMBOL OpAmps\\OP4177 96 400 R180
SYMATTR InstName U3
SYMBOL res 272 304 R90
WINDOW 0 0 56 VBottom 2
WINDOW 3 32 56 VTop 2
SYMATTR InstName R8
SYMATTR Value 1k
SYMBOL res 144 224 R90
WINDOW 0 0 56 VBottom 2
WINDOW 3 32 56 VTop 2
SYMATTR InstName R9
SYMATTR Value 200
SYMBOL Misc\\battery 400 -448 R0
SYMATTR InstName V4
SYMATTR Value 12V
SYMBOL Switches\\ADG1201 672 -336 R0
SYMATTR InstName U4
SYMBOL voltage 464 -224 R0
WINDOW 123 0 0 Left 0
WINDOW 39 0 0 Left 0
SYMATTR InstName V3
SYMATTR Value SINE(0 12 1k)
SYMBOL res 336 32 R0
SYMATTR InstName R10
SYMATTR Value 10k
SYMBOL voltage 320 -224 R0
SYMATTR InstName V5
SYMATTR Value 3.3
SYMBOL res 0 -400 R90
WINDOW 0 0 56 VBottom 2
WINDOW 3 32 56 VTop 2
SYMATTR InstName R12
SYMATTR Value 10k
SYMBOL res 96 -400 R90
WINDOW 0 0 56 VBottom 2
WINDOW 3 32 56 VTop 2
SYMATTR InstName R13
SYMATTR Value 10k
SYMBOL res 848 -288 R0
SYMATTR InstName R11
SYMATTR Value 1k
SYMBOL res 208 -400 R90
WINDOW 0 0 56 VBottom 2
WINDOW 3 32 56 VTop 2
SYMATTR InstName R14
SYMATTR Value 10k
SYMBOL res 256 -384 R0
SYMATTR InstName R15
SYMATTR Value 1k
SYMBOL res 208 -320 R0
SYMATTR InstName R16
SYMATTR Value 1k
SYMBOL res 256 -256 R0
SYMATTR InstName R17
SYMATTR Value 1k
SYMBOL res 432 224 R0
SYMATTR InstName R5
SYMATTR Value 1k
SYMBOL res 592 -48 R90
WINDOW 0 0 56 VBottom 2
WINDOW 3 32 56 VTop 2
SYMATTR InstName R18
SYMATTR Value 200
SYMBOL res 832 0 R90
WINDOW 0 0 56 VBottom 2
WINDOW 3 32 56 VTop 2
SYMATTR InstName R19
SYMATTR Value 1k
SYMBOL res 624 160 R0
SYMATTR InstName R20
SYMATTR Value 5k
SYMBOL res 528 400 R90
WINDOW 0 0 56 VBottom 2
WINDOW 3 32 56 VTop 2
SYMATTR InstName R21
SYMATTR Value 10k
SYMBOL cap 320 448 R0
SYMATTR InstName C3
SYMATTR Value 10µF
SYMBOL voltage 816 192 R0
SYMATTR InstName V6
SYMATTR Value 5
SYMBOL res 800 160 R90
WINDOW 0 0 56 VBottom 2
WINDOW 3 32 56 VTop 2
SYMATTR InstName R22
SYMATTR Value 1k
SYMBOL res 928 208 R0
SYMATTR InstName R23
SYMATTR Value 1k
TEXT -376 -8 Left 2 !K L1 L2 1
TEXT -384 304 Left 2 !.tran 10s
TEXT 608 -8 Left 2 !K2 L3 L4 1
