Version 4
SHEET 1 2520 788
WIRE 576 0 528 0
WIRE 704 0 656 0
WIRE 704 64 704 0
WIRE 1344 80 1216 80
WIRE 1488 80 1344 80
WIRE 1520 80 1488 80
WIRE 1776 80 1584 80
WIRE 1216 112 1216 80
WIRE 1488 112 1488 80
WIRE 1728 112 1488 112
WIRE 1344 160 1344 80
WIRE 1488 160 1344 160
WIRE 1520 160 1488 160
WIRE 1664 160 1584 160
WIRE 1872 160 1664 160
WIRE 2064 176 1936 176
WIRE 1344 192 1344 160
WIRE 1616 192 1344 192
WIRE 1872 192 1616 192
WIRE 704 208 704 144
WIRE 704 208 640 208
WIRE 1776 208 1776 80
WIRE 1872 208 1776 208
WIRE 1216 240 1216 192
WIRE 640 256 640 208
WIRE 704 304 704 208
WIRE 1152 304 704 304
WIRE 1664 304 1664 160
WIRE 1872 304 1664 304
WIRE 2064 320 1936 320
WIRE 1616 336 1616 192
WIRE 1872 336 1616 336
WIRE 1728 352 1728 112
WIRE 1872 352 1728 352
WIRE 704 368 704 304
WIRE 640 416 640 336
WIRE 640 416 576 416
WIRE 576 432 576 416
WIRE 1488 432 1488 160
WIRE 1664 432 1488 432
WIRE 1872 432 1664 432
WIRE 2064 448 1936 448
WIRE 1616 464 1616 336
WIRE 1872 464 1616 464
WIRE 1776 480 1776 208
WIRE 1872 480 1776 480
WIRE 640 496 640 416
WIRE 1152 496 640 496
WIRE 640 512 640 496
WIRE 576 544 576 512
WIRE 576 544 512 544
WIRE 1664 560 1664 432
WIRE 1872 560 1664 560
WIRE 2064 576 1936 576
WIRE 1616 592 1616 464
WIRE 1872 592 1616 592
WIRE 1728 608 1728 352
WIRE 1872 608 1728 608
WIRE 576 624 576 544
WIRE 1152 624 576 624
WIRE 512 656 512 544
WIRE 576 656 576 624
WIRE 512 768 512 736
WIRE 512 768 448 768
WIRE 576 768 576 736
WIRE 576 768 512 768
WIRE 640 768 640 592
WIRE 640 768 576 768
WIRE 704 768 704 448
WIRE 704 768 640 768
FLAG 528 0 0
FLAG 448 768 0
FLAG 1216 240 0
SYMBOL voltage 672 0 R90
WINDOW 0 -32 56 VBottom 2
WINDOW 3 32 56 VTop 2
SYMATTR InstName V1
SYMATTR Value 5V
SYMBOL res 720 160 R180
WINDOW 0 36 76 Left 2
WINDOW 3 36 40 Left 2
SYMATTR InstName R1
SYMATTR Value 1k
SYMBOL res 656 352 R180
WINDOW 0 36 76 Left 2
WINDOW 3 36 40 Left 2
SYMATTR InstName R2
SYMATTR Value 1k
SYMBOL res 592 528 R180
WINDOW 0 36 76 Left 2
WINDOW 3 36 40 Left 2
SYMATTR InstName R3
SYMATTR Value 1k
SYMBOL res 528 752 R180
WINDOW 0 36 76 Left 2
WINDOW 3 36 40 Left 2
SYMATTR InstName R4
SYMATTR Value 1k
SYMBOL res 720 464 R180
WINDOW 0 36 76 Left 2
WINDOW 3 36 40 Left 2
SYMATTR InstName R5
SYMATTR Value 1k
SYMBOL res 656 608 R180
WINDOW 0 36 76 Left 2
WINDOW 3 36 40 Left 2
SYMATTR InstName R6
SYMATTR Value 1k
SYMBOL res 592 752 R180
WINDOW 0 36 76 Left 2
WINDOW 3 36 40 Left 2
SYMATTR InstName R7
SYMATTR Value 1k
SYMBOL Digital\\inv 1520 16 R0
SYMATTR InstName A1
SYMBOL Digital\\inv 1520 96 R0
SYMATTR InstName A2
SYMBOL Digital\\and 1904 128 R0
SYMATTR InstName A3
SYMBOL Digital\\and 1904 272 R0
SYMATTR InstName A4
SYMBOL Digital\\and 1904 400 R0
SYMATTR InstName A5
SYMBOL Digital\\and 1904 528 R0
SYMATTR InstName A6
SYMBOL voltage 1216 96 R0
WINDOW 123 0 0 Left 0
WINDOW 39 0 0 Left 0
SYMATTR InstName V2
SYMATTR Value 3V
SYMBOL Optos\\PC817B 2416 112 R0
SYMATTR InstName U1
SYMBOL Optos\\PC817B 2416 272 R0
SYMATTR InstName U2
SYMBOL Optos\\PC817B 2416 416 R0
SYMATTR InstName U3
TEXT 362 -34 VRight 2 !.tran 10ms
TEXT 392 -88 Left 2 ;Driving Ref
TEXT 2288 -48 Left 2 ;Decorder?
TEXT 1432 -72 Left 2 ;Demux
