Version 4
SHEET 1 2388 680
WIRE 1728 -208 1600 -208
WIRE 1728 -144 1728 -208
WIRE 2176 -80 2176 -144
WIRE 1600 -16 1600 -208
WIRE 1728 0 1728 -64
WIRE 1408 32 1168 32
WIRE 1472 32 1408 32
WIRE 1536 32 1472 32
WIRE 1168 64 1168 32
WIRE 1408 80 1408 32
WIRE 2176 80 2176 0
WIRE 1600 96 1600 80
WIRE 1984 96 1600 96
WIRE 2144 96 2064 96
WIRE 2320 112 2208 112
WIRE 2384 112 2320 112
WIRE 2144 128 2064 128
WIRE 1600 160 1600 96
WIRE 2176 192 2176 144
WIRE 1168 208 1168 144
WIRE 1408 208 1408 144
WIRE 1472 208 1472 32
WIRE 1536 208 1472 208
WIRE 2064 256 2064 128
WIRE 2144 256 2064 256
WIRE 2320 256 2320 112
WIRE 2320 256 2224 256
WIRE 2064 320 2064 256
WIRE 1600 336 1600 256
WIRE 2064 432 2064 400
FLAG 1408 208 0
FLAG 1168 208 0
FLAG 1600 336 0
FLAG 1728 0 0
FLAG 2176 192 0
FLAG 2176 -144 0
FLAG 2064 432 0
SYMBOL cap 1392 80 R0
SYMATTR InstName C3
SYMATTR Value 100n
SYMBOL voltage 1168 48 R0
WINDOW 123 0 0 Left 0
WINDOW 39 0 0 Left 0
SYMATTR InstName V4
SYMATTR Value SINE(0 5 1KHz)
SYMBOL npn 1536 160 R0
SYMATTR InstName Q5
SYMBOL pnp 1536 -16 R0
WINDOW 0 57 34 Left 2
WINDOW 3 60 71 Left 2
SYMATTR InstName Q6
SYMBOL voltage 1728 -160 R0
SYMATTR InstName V5
SYMATTR Value 5V
SYMBOL OpAmps\\LT1007 2176 48 R0
SYMATTR InstName U1
SYMBOL voltage 2176 16 R180
WINDOW 0 24 96 Left 2
WINDOW 3 24 16 Left 2
SYMATTR InstName V6
SYMATTR Value 5V
SYMBOL res 2240 240 R90
WINDOW 0 0 56 VBottom 2
WINDOW 3 32 56 VTop 2
SYMATTR InstName R1
SYMATTR Value 1k
SYMBOL res 2080 416 R180
WINDOW 0 36 76 Left 2
WINDOW 3 36 40 Left 2
SYMATTR InstName R2
SYMATTR Value 1k
SYMBOL res 2080 80 R90
WINDOW 0 0 56 VBottom 2
WINDOW 3 32 56 VTop 2
SYMATTR InstName R3
SYMATTR Value 100k
TEXT 1134 456 Left 2 !.tran 10ms
TEXT 2088 -280 Left 2 ;Sine To Square Wave
