Version 4
SHEET 1 880 1268
WIRE -80 -752 -80 -832
WIRE 272 -688 272 -752
WIRE -80 -608 -80 -672
WIRE 272 -576 272 -608
WIRE 608 -576 272 -576
WIRE 272 -528 272 -576
WIRE -80 -512 -80 -528
WIRE 112 -512 -80 -512
WIRE -80 -496 -80 -512
WIRE 112 -464 112 -512
WIRE 144 -464 112 -464
WIRE -80 -400 -80 -416
WIRE 144 -400 -80 -400
WIRE -80 -384 -80 -400
WIRE 144 -336 112 -336
WIRE -80 -288 -80 -304
WIRE 112 -288 112 -336
WIRE 112 -288 -80 -288
WIRE -80 -272 -80 -288
WIRE 144 -272 112 -272
WIRE 144 -208 128 -208
WIRE -80 -176 -80 -192
WIRE 112 -176 112 -272
WIRE 112 -176 -80 -176
WIRE -80 -160 -80 -176
WIRE 144 -144 64 -144
WIRE 624 -96 544 -96
WIRE 752 -96 704 -96
WIRE 144 -80 80 -80
WIRE -80 -64 -80 -80
WIRE 128 -64 128 -208
WIRE 128 -64 -80 -64
WIRE -80 -48 -80 -64
WIRE 144 -16 96 -16
WIRE 608 0 608 -576
WIRE -1056 16 -1056 -48
WIRE -944 16 -944 -48
WIRE -832 16 -832 -48
WIRE -720 16 -720 -48
WIRE 544 16 544 -96
WIRE 544 16 400 16
WIRE 576 16 544 16
WIRE 752 32 752 -96
WIRE 752 32 640 32
WIRE 816 32 752 32
WIRE -80 48 -80 32
WIRE 64 48 64 -144
WIRE 64 48 -80 48
WIRE 144 48 112 48
WIRE 576 48 528 48
WIRE -80 64 -80 48
WIRE 144 112 0 112
WIRE 528 112 528 48
WIRE 608 112 608 64
WIRE -1056 144 -1056 96
WIRE -944 144 -944 96
WIRE -832 144 -832 96
WIRE -720 144 -720 96
WIRE -80 160 -80 144
WIRE 80 160 80 -80
WIRE 80 160 -80 160
WIRE -80 176 -80 160
WIRE 144 176 16 176
WIRE 144 240 32 240
WIRE -80 272 -80 256
WIRE 96 272 96 -16
WIRE 96 272 -80 272
WIRE -80 288 -80 272
WIRE 144 304 48 304
WIRE 144 368 64 368
WIRE -80 400 -80 368
WIRE 112 400 112 48
WIRE 112 400 -80 400
WIRE 144 432 80 432
WIRE -80 496 -80 480
WIRE 0 496 0 112
WIRE 0 496 -80 496
WIRE 144 496 96 496
WIRE -80 512 -80 496
WIRE 144 560 -208 560
WIRE 480 560 400 560
WIRE 480 576 480 560
WIRE -80 608 -80 592
WIRE 16 608 16 176
WIRE 16 608 -80 608
WIRE -80 624 -80 608
WIRE -80 624 -208 624
WIRE 144 624 -80 624
WIRE 144 688 -208 688
WIRE 480 688 480 656
WIRE -80 720 -80 704
WIRE 32 720 32 240
WIRE 32 720 -80 720
WIRE -80 736 -80 720
WIRE 144 752 -208 752
WIRE -80 832 -80 816
WIRE 48 832 48 304
WIRE 48 832 -80 832
WIRE -80 848 -80 832
WIRE 208 864 208 816
WIRE 336 880 336 816
WIRE -80 944 -80 928
WIRE 64 944 64 368
WIRE 64 944 -80 944
WIRE -80 960 -80 944
WIRE 208 976 208 944
WIRE -80 1072 -80 1040
WIRE 80 1072 80 432
WIRE 80 1072 -80 1072
WIRE -80 1088 -80 1072
WIRE -80 1184 -80 1168
WIRE 96 1184 96 496
WIRE 96 1184 -80 1184
FLAG 528 112 0
FLAG 336 880 0
FLAG 480 688 0
FLAG 272 -752 0
FLAG -80 -832 0
FLAG -1056 144 0
FLAG -944 144 0
FLAG -832 144 0
FLAG -720 144 0
FLAG -1056 -48 b1
IOPIN -1056 -48 In
FLAG -944 -48 b2
IOPIN -944 -48 In
FLAG -832 -48 b3
IOPIN -832 -48 In
FLAG -720 -48 b4
IOPIN -720 -48 In
FLAG -208 560 b1
IOPIN -208 560 In
FLAG -208 624 b2
IOPIN -208 624 In
FLAG -208 688 b3
IOPIN -208 688 In
FLAG -208 752 b4
IOPIN -208 752 In
FLAG 208 976 0
FLAG 608 112 0
SYMBOL Switches\\ADG1206 272 -208 R0
SYMATTR InstName U1
SYMBOL OpAmps\\AD711 608 -32 R0
SYMATTR InstName U2
SYMBOL res 720 -112 R90
WINDOW 0 0 56 VBottom 2
WINDOW 3 32 56 VTop 2
SYMATTR InstName R1
SYMATTR Value 0.5
SYMBOL voltage 272 -592 R180
WINDOW 0 24 96 Left 2
WINDOW 3 24 16 Left 2
SYMATTR InstName V1
SYMATTR Value 15V
SYMBOL voltage 480 560 R0
SYMATTR InstName V2
SYMATTR Value 1
SYMBOL voltage -80 -656 R180
WINDOW 0 24 96 Left 2
WINDOW 3 24 16 Left 2
SYMATTR InstName V3
SYMATTR Value 5V
SYMBOL res -96 -624 R0
SYMATTR InstName R2
SYMATTR Value 1
SYMBOL res -96 -512 R0
SYMATTR InstName R3
SYMATTR Value 2
SYMBOL res -96 -400 R0
SYMATTR InstName R4
SYMATTR Value 4
SYMBOL res -96 -288 R0
SYMATTR InstName R5
SYMATTR Value 8
SYMBOL res -96 -176 R0
SYMATTR InstName R6
SYMATTR Value 16
SYMBOL res -96 -64 R0
SYMATTR InstName R7
SYMATTR Value 32
SYMBOL res -96 48 R0
SYMATTR InstName R8
SYMATTR Value 64
SYMBOL res -96 160 R0
SYMATTR InstName R9
SYMATTR Value 128
SYMBOL res -96 272 R0
SYMATTR InstName R10
SYMATTR Value 256
SYMBOL res -96 384 R0
SYMATTR InstName R11
SYMATTR Value 512
SYMBOL res -96 496 R0
SYMATTR InstName R12
SYMATTR Value 1024
SYMBOL res -96 608 R0
SYMATTR InstName R13
SYMATTR Value 2048
SYMBOL res -96 720 R0
SYMATTR InstName R14
SYMATTR Value 4096
SYMBOL res -96 832 R0
SYMATTR InstName R15
SYMATTR Value 8192
SYMBOL res -96 944 R0
SYMATTR InstName R16
SYMATTR Value 16384
SYMBOL res -96 1072 R0
SYMATTR InstName R17
SYMATTR Value 32768
SYMBOL voltage -1056 0 R0
WINDOW 123 0 0 Left 0
WINDOW 39 0 0 Left 0
SYMATTR InstName V4
SYMATTR Value 5
SYMBOL voltage -944 0 R0
WINDOW 123 0 0 Left 0
WINDOW 39 0 0 Left 0
SYMATTR InstName V5
SYMATTR Value 5
SYMBOL voltage -832 0 R0
SYMATTR InstName V6
SYMATTR Value 0
SYMBOL voltage -720 0 R0
WINDOW 123 0 0 Left 0
WINDOW 39 0 0 Left 0
SYMATTR InstName V7
SYMATTR Value 0
SYMBOL voltage 208 848 R0
WINDOW 123 0 0 Left 0
WINDOW 39 0 0 Left 0
SYMATTR InstName V8
SYMATTR Value -15V
TEXT -1128 1190 Left 2 !.tran 10ms
