Version 4
SHEET 1 880 680
WIRE 272 176 224 176
WIRE 400 176 352 176
WIRE 400 192 400 176
WIRE 224 224 224 176
WIRE 224 320 224 288
WIRE 400 320 400 272
FLAG 400 320 0
FLAG 224 320 0
SYMBOL voltage 400 176 R0
SYMATTR InstName V1
SYMATTR Value 12V
SYMBOL References\\LT1004-2.5 224 256 R0
SYMATTR InstName U1
SYMBOL res 368 160 R90
WINDOW 0 0 56 VBottom 2
WINDOW 3 32 56 VTop 2
SYMATTR InstName R2
SYMATTR Value 1k
TEXT 16 344 Left 2 !.tran 10ms
