Version 4
SHEET 1 2916 2936
SYMBOL SpecialFunctions\\LT4294 160 48 R0
SYMATTR InstName U1
SYMBOL SpecialFunctions\\LTC2865 160 544 R0
SYMATTR InstName U2
SYMBOL SpecialFunctions\\LTC2875 160 1024 R0
SYMATTR InstName U3
SYMBOL PowerProducts\\ADM7170-1.3 -48 2224 R0
SYMATTR InstName U4
SYMBOL PowerProducts\\ADM7170-1.8 432 2224 R0
SYMATTR InstName U5
SYMBOL PowerProducts\\ADM7170-2.5 912 2224 R0
SYMATTR InstName U6
SYMBOL PowerProducts\\ADM7170-3.0 1360 2224 R0
SYMATTR InstName U7
SYMBOL PowerProducts\\ADM7170-3.3 1792 2224 R0
SYMATTR InstName U8
SYMBOL PowerProducts\\ADM7170-4.2 2192 2224 R0
SYMATTR InstName U9
SYMBOL PowerProducts\\ADM7170-5.0 2608 2224 R0
SYMATTR InstName U10
SYMBOL Switches\\ADG1208 -576 1968 R0
SYMATTR InstName U11
SYMBOL ADC\\AD4000 2448 208 R0
SYMATTR InstName U12
TEXT 256 -152 Left 2 ;IEEE
TEXT 216 320 Left 2 ;RS485/422
TEXT 264 832 Left 2 ;CAN
TEXT -24 -456 Left 6 ;Communication Interface Debugging
TEXT 0 1744 Left 6 ;Power Debugging
TEXT 2168 -472 Left 6 ;Sensing Debugging
