Version 4
SHEET 1 1056 680
WIRE 576 -16 576 -64
WIRE 576 -16 432 -16
WIRE 720 -16 576 -16
WIRE 432 64 432 -16
WIRE 400 96 192 96
WIRE 720 96 720 -16
WIRE 688 112 480 112
WIRE 912 112 752 112
WIRE 400 128 192 128
WIRE 432 208 432 160
WIRE 576 208 432 208
WIRE 720 208 720 128
WIRE 720 208 576 208
WIRE 576 272 576 208
FLAG 192 96 AND_A
IOPIN 192 96 In
FLAG 192 128 AND_B
IOPIN 192 128 In
FLAG 912 112 AND_O
IOPIN 912 112 Out
FLAG 576 -64 VDD
IOPIN 576 -64 In
FLAG 576 272 VSS
IOPIN 576 272 In
SYMBOL m_Inverter 720 112 R0
SYMATTR InstName X1
SYMBOL m_Nand 464 112 R0
SYMATTR InstName X2
