Version 4
SHEET 1 1028 1140
WIRE 16 -432 -96 -432
WIRE 16 -352 -112 -352
WIRE 160 -304 160 -400
WIRE 160 -304 144 -304
WIRE 144 -288 144 -304
WIRE -352 -272 -352 -384
WIRE -224 -272 -224 -384
WIRE 112 -272 -32 -272
WIRE 400 -272 192 -272
WIRE 144 -208 144 -256
WIRE 144 -208 96 -208
WIRE 160 -192 160 -304
WIRE 160 -192 144 -192
WIRE 144 -176 144 -192
WIRE 112 -144 -32 -144
WIRE -352 -128 -352 -192
WIRE -224 -128 -224 -192
WIRE 400 -128 176 -128
WIRE 112 -112 -32 -112
WIRE 96 -48 96 -208
WIRE 144 -48 144 -80
WIRE 144 -48 96 -48
WIRE 160 -32 160 -192
WIRE 160 -32 144 -32
WIRE 144 -16 144 -32
WIRE 112 16 -32 16
WIRE 400 32 192 32
WIRE 112 48 -32 48
WIRE 96 112 96 -48
WIRE 144 112 144 80
WIRE 144 112 96 112
WIRE 160 128 160 -32
WIRE 160 128 144 128
WIRE 176 128 160 128
WIRE 144 144 144 128
WIRE 128 160 -32 160
WIRE 320 176 160 176
WIRE 128 192 -32 192
WIRE 96 240 96 112
WIRE 144 240 144 208
WIRE 144 240 96 240
WIRE 160 256 144 256
WIRE 176 256 176 128
WIRE 176 256 160 256
WIRE -352 272 -352 160
WIRE 144 288 144 256
WIRE 112 304 -32 304
WIRE 400 336 192 336
WIRE 112 368 -32 368
WIRE -352 416 -352 352
WIRE 96 432 96 240
WIRE 144 432 144 384
WIRE 144 432 96 432
WIRE 160 480 160 256
WIRE 160 480 128 480
WIRE 128 512 128 480
WIRE 64 528 -32 528
WIRE 400 528 192 528
WIRE 64 592 0 592
WIRE 400 592 192 592
WIRE 96 656 96 432
WIRE 128 656 128 608
WIRE 128 656 96 656
WIRE 160 704 160 480
WIRE 160 704 128 704
WIRE 128 736 128 704
WIRE -48 768 -192 768
WIRE 80 768 -48 768
WIRE 400 768 192 768
WIRE 80 816 32 816
WIRE -192 832 -192 768
WIRE -48 864 -112 864
WIRE 80 864 -48 864
WIRE 400 864 192 864
WIRE -112 944 -112 864
WIRE 96 944 96 656
WIRE 128 944 128 896
WIRE 128 944 96 944
WIRE -192 976 -192 912
WIRE 96 1008 96 944
WIRE -112 1088 -112 1024
FLAG -224 -128 0
FLAG -224 -384 5V
IOPIN -224 -384 Out
FLAG -352 -128 0
FLAG -352 -384 GND
IOPIN -352 -384 Out
FLAG -96 -432 5V
IOPIN -96 -432 In
FLAG 16 -432 H
IOPIN 16 -432 Out
FLAG -112 -352 0
FLAG 16 -352 L
IOPIN 16 -352 Out
FLAG -32 -272 L
IOPIN -32 -272 Out
FLAG 160 -400 5V
IOPIN 160 -400 In
FLAG 96 1008 GND
IOPIN 96 1008 Out
FLAG -32 -144 H
IOPIN -32 -144 Out
FLAG -32 -112 H
IOPIN -32 -112 Out
FLAG -32 16 H
IOPIN -32 16 Out
FLAG -32 48 L
IOPIN -32 48 Out
FLAG -32 160 L
IOPIN -32 160 Out
FLAG -32 192 L
IOPIN -32 192 Out
FLAG -32 304 L
IOPIN -32 304 Out
FLAG -32 368 L
IOPIN -32 368 Out
FLAG -32 528 L
IOPIN -32 528 Out
FLAG -352 416 0
FLAG -352 160 CLK
IOPIN -352 160 Out
FLAG 0 592 CLK
IOPIN 0 592 Out
FLAG 32 816 CLK
IOPIN 32 816 Out
FLAG -192 976 0
FLAG -112 1088 0
FLAG 400 768 Q
FLAG -48 768 R
FLAG -48 864 S
SYMBOL m_And 176 -128 R0
SYMATTR InstName X1
SYMBOL m_DQ_ff 112 560 R0
SYMATTR InstName X2
SYMBOL m_SR_ff 128 816 R0
SYMATTR InstName X3
SYMBOL m_Or 128 176 R0
SYMATTR InstName X4
SYMBOL m_Inverter 144 -272 R0
SYMATTR InstName X5
SYMBOL m_Nand 176 32 R0
SYMATTR InstName X6
SYMBOL m_Nor 192 336 R0
SYMATTR InstName X7
SYMBOL voltage -224 -288 R0
SYMATTR InstName V1
SYMATTR Value 3.3
SYMBOL voltage -352 -288 R0
SYMATTR InstName V2
SYMATTR Value 0
SYMBOL voltage -352 256 R0
WINDOW 123 0 0 Left 0
WINDOW 39 0 0 Left 0
SYMATTR InstName V3
SYMATTR Value PULSE(0 5 0 0.1u 0.1u 0.3u 1u)
SYMBOL voltage -192 816 R0
WINDOW 123 0 0 Left 0
WINDOW 39 0 0 Left 0
SYMATTR InstName V4
SYMATTR Value PULSE(0 5 0 0.1u 0.1u 0.3u 0.5u)
SYMBOL voltage -112 928 R0
WINDOW 123 0 0 Left 0
WINDOW 39 0 0 Left 0
SYMATTR InstName V5
SYMATTR Value PULSE(0 5 0 0.1u 0.1u 0.4u 3u)
TEXT -424 1120 Left 2 !.tran 100ms
TEXT 616 72 Left 2 ;Behavior m_logic verification done.
