Version 4
SHEET 1 1004 680
WIRE 320 -96 304 -96
WIRE 448 -96 448 -160
WIRE 448 -96 320 -96
WIRE 576 -96 448 -96
WIRE 592 -96 576 -96
WIRE 304 64 304 -96
WIRE 272 96 64 96
WIRE 576 96 576 -96
WIRE 544 112 336 112
WIRE 272 128 208 128
WIRE 768 144 624 144
WIRE 912 144 768 144
WIRE 544 176 464 176
WIRE 608 192 576 192
WIRE 768 208 768 144
WIRE 768 208 448 208
WIRE 208 224 208 128
WIRE 208 224 -16 224
WIRE 304 224 304 160
WIRE 304 224 256 224
WIRE 464 224 464 176
WIRE 736 224 464 224
WIRE 320 240 320 -96
WIRE 320 240 304 240
WIRE 592 240 592 -96
WIRE 592 240 576 240
WIRE 448 256 448 208
WIRE 544 256 448 256
WIRE 304 272 304 240
WIRE 736 288 736 224
WIRE 736 288 624 288
WIRE 912 288 736 288
WIRE 208 304 208 224
WIRE 272 304 208 304
WIRE 544 320 336 320
WIRE 272 336 64 336
WIRE 256 496 256 224
WIRE 304 496 304 368
WIRE 304 496 256 496
WIRE 448 496 304 496
WIRE 576 496 576 336
WIRE 576 496 448 496
WIRE 608 496 608 192
WIRE 608 496 576 496
WIRE 448 544 448 496
FLAG -16 224 CLK
IOPIN -16 224 In
FLAG 912 144 Q
IOPIN 912 144 Out
FLAG 912 288 /Q
IOPIN 912 288 Out
FLAG 64 96 R
IOPIN 64 96 In
FLAG 64 336 S
IOPIN 64 336 In
FLAG 448 -160 VCC
IOPIN 448 -160 In
FLAG 448 544 VSS
IOPIN 448 544 In
SYMBOL m_And 336 112 R0
SYMATTR InstName X1
SYMBOL m_And 336 320 R0
SYMATTR InstName X2
SYMBOL m_Nor 624 144 R0
SYMATTR InstName X3
SYMBOL m_Nor 624 288 R0
SYMATTR InstName X4
