Version 4
SHEET 1 1796 932
WIRE 448 -16 448 -80
WIRE 576 -16 576 -80
WIRE 720 -16 720 -80
WIRE 128 32 128 -80
WIRE 32 112 -128 112
WIRE 320 112 224 112
WIRE 1472 128 1472 80
WIRE 1472 128 1024 128
WIRE 448 144 448 64
WIRE 576 144 576 64
WIRE 720 144 720 64
WIRE 32 176 -64 176
WIRE 64 304 64 288
WIRE 64 304 -64 304
WIRE 64 336 64 304
WIRE 192 336 192 288
WIRE 64 352 64 336
WIRE 1472 352 1472 128
WIRE 1472 352 1328 352
WIRE 560 384 560 352
WIRE 832 384 560 384
WIRE 1024 400 1024 128
WIRE 1056 400 1024 400
WIRE 1264 400 1136 400
WIRE 1472 400 1472 352
WIRE 560 432 560 384
WIRE 64 448 64 416
WIRE 1408 448 1328 448
WIRE 1472 528 1472 496
WIRE 1568 528 1472 528
WIRE 1584 528 1568 528
WIRE 1792 528 1632 528
WIRE 1472 560 1472 528
WIRE 560 640 560 512
WIRE 704 640 560 640
WIRE 1472 704 1472 640
WIRE 560 736 560 640
WIRE 832 736 832 384
WIRE 704 784 704 640
WIRE 704 784 624 784
WIRE 768 784 704 784
WIRE 560 912 560 832
WIRE 832 912 832 832
FLAG 192 336 0
FLAG 64 448 0
FLAG -64 176 0
FLAG 576 144 0
FLAG 576 -80 5V
FLAG 720 144 0
FLAG 720 -80 3V3
FLAG 128 -80 3V3
FLAG 560 352 5V
FLAG 560 912 0
FLAG 832 912 0
FLAG 1472 80 10V
FLAG 1472 704 0
FLAG 448 144 0
FLAG 448 -80 10V
SYMBOL Switches\\ADG1311 128 160 R0
SYMATTR InstName U1
SYMBOL voltage 64 320 R0
WINDOW 123 0 0 Left 0
WINDOW 39 0 0 Left 0
SYMATTR InstName V1
SYMATTR Value 5
SYMBOL voltage 576 -32 R0
SYMATTR InstName V2
SYMATTR Value 5
SYMBOL voltage 720 -32 R0
SYMATTR InstName V3
SYMATTR Value 3.3
SYMBOL npn 768 736 R0
SYMATTR InstName Q1
SYMBOL npn 624 736 M0
SYMATTR InstName Q2
SYMBOL npn 1264 352 R0
SYMATTR InstName Q3
SYMBOL npn 1408 400 R0
SYMATTR InstName Q4
SYMBOL res 1152 384 R90
WINDOW 0 0 56 VBottom 2
WINDOW 3 32 56 VTop 2
SYMATTR InstName R1
SYMATTR Value 50
SYMBOL res 1456 544 R0
SYMATTR InstName R2
SYMATTR Value 51
SYMBOL cap 1632 512 R90
WINDOW 0 0 32 VBottom 2
WINDOW 3 32 32 VTop 2
SYMATTR InstName C1
SYMATTR Value 10µ
SYMBOL voltage 448 -32 R0
SYMATTR InstName V4
SYMATTR Value 10
SYMBOL current 560 432 R0
WINDOW 123 0 0 Left 0
WINDOW 39 0 0 Left 0
SYMATTR InstName I1
SYMATTR Value 1mA
TEXT -128 472 Left 2 !.tran 10
