Version 4
SHEET 1 1796 932
WIRE 192 144 -48 144
WIRE 384 176 320 176
WIRE 448 176 384 176
WIRE 480 176 448 176
WIRE 192 208 128 208
WIRE 448 208 448 176
WIRE -48 256 -48 224
WIRE 128 304 128 208
WIRE 384 304 384 176
WIRE 384 304 128 304
WIRE 448 304 448 272
FLAG -48 256 0
FLAG 448 304 0
SYMBOL uA741 256 176 R0
SYMATTR InstName uA741
SYMBOL voltage -48 128 R0
SYMATTR InstName V1
SYMATTR Value 5V
SYMBOL cap 432 208 R0
SYMATTR InstName C1
SYMATTR Value 10µ
TEXT -82 312 Left 2 !.tran 10ms
